resultados/04_trecho_trifasico/subalimentador/linhas_extraido.dss
New "Line.RED_SMT_247808616" phases=3 bus1="NODE#445010976.1.2.3" bus2="NODE#445010762.1.2.3" geometry=GEOM_LOSANG_CEMIG length=0.17878 units=km
New "Line.RED_RED_SMT_247808730" phases=3 bus1="NODE#445010976.1.2.3" bus2="NODE#433473112.1.2.3" geometry=GEOM_LOSANG_CEMIG length=0.17116 units=km
New "Line.SMT_245489175" phases=3 bus1="NODE#433472718.1.2.3" bus2="NODE#433472719.1.2.3" geometry=GEOM_LOSANG_CEMIG length=0.02012 units=km
New "Line.SMT_924644262" phases=3 bus1="NODE#433472718.1.2.3.4" bus2="NODE#1194264563.1.2.3.4" geometry=GEOM_LOSANG_CEMIG length=0.00200 units=km
New "Line.RED_SMT_348153494" phases=3 bus1="NODE#433472718.1.2.3" bus2="NODE#433473112.1.2.3" geometry=GEOM_LOSANG_CEMIG length=0.02785 units=km
New "Line.RED_SMT_247808771" phases=3 bus1="NODE#433473112.1.2.3" bus2="NODE#445010992.1.2.3" geometry=GEOM_LOSANG_CEMIG length=0.05870 units=km
New "Line.RED_SMT_247808757" phases=1 bus1="NODE#433473112.2" bus2="NODE#433473407.2" linecode="1193_1" length=0.09491 units=km
New "Line.RED_SMT_247808542" phases=3 bus1="NODE#445011621.1.2.3" bus2="NODE#445010391.1.2.3" geometry=GEOM_LOSANG_CEMIG length=0.13480 units=km
New "Line.RED_SMT_342933775" phases=3 bus1="NODE#445011621.1.2.3" bus2="NODE#445010992.1.2.3" geometry=GEOM_LOSANG_CEMIG length=0.11276 units=km
New "Line.RED_SMT_247808829" phases=1 bus1="NODE#445011621.1" bus2="NODE#445011831.1" linecode="1193_1" length=0.07654 units=km
New "Line.RED_RED_SMT_247808644" phases=3 bus1="NODE#445011037.1.2.3" bus2="NODE#445010711.1.2.3" geometry=GEOM_LOSANG_CEMIG length=0.17872 units=km
New "Line.RED_SMT_247808675" phases=1 bus1="NODE#445011037.2" bus2="NODE#433472213.2" linecode="1193_1" length=0.06270 units=km
New "Line.RED_SMT_348286412" phases=1 bus1="NODE#433472239.2" bus2="NODE#433472213.2" linecode="1192_1" length=0.10764 units=km
New "Line.RED_SMT_247808742" phases=3 bus1="NODE#445010711.1.2.3" bus2="NODE#445010391.1.2.3" geometry=GEOM_LOSANG_CEMIG length=0.21449 units=km
New "Line.RED_SMT_1555106632" phases=3 bus1="NODE#445010711.1.2.3" bus2="NODE#445010712.1.2.3" geometry=GEOM_LOSANG_CEMIG length=0.04100 units=km
New "Line.RED_SMT_245489312" phases=1 bus1="NODE#433473407.2" bus2="NODE#433472689.2" linecode="1191_1" length=0.17029 units=km
New "Line.SMT_247808836" phases=1 bus1="NODE#433472689.2" bus2="NODE#445011866.2" linecode="1193_1" length=0.04000 units=km
New "Line.RED_SMT_1555106543" phases=3 bus1="NODE#445010712.1.2.3" bus2="NODE#1856060650.1.2.3" geometry=GEOM_LOSANG_CEMIG length=0.14900 units=km
