resultados/04_trecho_trifasico/subalimentador/cargas_extraido.dss
New "Load.BT_295227924_M1" bus1="NODE#420661565.3" phases=1 conn=Wye model=2 kv=0.220000000 kw = 0.0 pf=0.92 status=variable vmaxpu=1.5 vminpu=0.92 daily="RES3_11_DU"
New "Load.BT_295227924_M2" bus1="NODE#420661565.3" phases=1 conn=Wye model=3 kv=0.220000000 kw = 0.0 pf=0.92 status=variable vmaxpu=1.5 vminpu=0.92 daily="RES3_11_DU"
New "Load.BT_295227798_M1" bus1="NODE#420683215.2" phases=1 conn=Wye model=2 kv=0.220000000 kw = 0.0 pf=0.92 status=variable vmaxpu=1.5 vminpu=0.92 daily="RES1_1_DU"
New "Load.BT_295227798_M2" bus1="NODE#420683215.2" phases=1 conn=Wye model=3 kv=0.220000000 kw = 0.0 pf=0.92 status=variable vmaxpu=1.5 vminpu=0.92 daily="RES1_1_DU"
New "Load.BT_295227806_1_M1" bus1="NODE#420683215.1.2.3" phases=3 conn=Delta model=2 kv=0.220000000 kw = 0.0629875 pf=0.92 status=variable vmaxpu=1.5 vminpu=0.92 daily="RES1_20_DU"
New "Load.BT_295227806_1_M2" bus1="NODE#420683215.1.2.3" phases=3 conn=Delta model=3 kv=0.220000000 kw = 0.0629875 pf=0.92 status=variable vmaxpu=1.5 vminpu=0.92 daily="RES1_20_DU"
New "Load.BT_295227814_1_M1" bus1="NODE#420683215.1.2.3" phases=3 conn=Delta model=2 kv=0.220000000 kw = 0.0606455 pf=0.92 status=variable vmaxpu=1.5 vminpu=0.92 daily="RES1_22_DU"
New "Load.BT_295227814_1_M2" bus1="NODE#420683215.1.2.3" phases=3 conn=Delta model=3 kv=0.220000000 kw = 0.0606455 pf=0.92 status=variable vmaxpu=1.5 vminpu=0.92 daily="RES1_22_DU"
New "Load.BT_299955485_1_M1" bus1="NODE#420683284.1.2.3" phases=3 conn=Delta model=2 kv=0.220000000 kw = 0.0 pf=0.92 status=variable vmaxpu=1.5 vminpu=0.92 daily="RES1_2_DU"
New "Load.BT_299955485_1_M2" bus1="NODE#420683284.1.2.3" phases=3 conn=Delta model=3 kv=0.220000000 kw = 0.0 pf=0.92 status=variable vmaxpu=1.5 vminpu=0.92 daily="RES1_2_DU"
New "Load.BT_295227788_M1" bus1="NODE#420683215.3" phases=1 conn=Wye model=2 kv=0.220000000 kw = 0.0 pf=0.92 status=variable vmaxpu=1.5 vminpu=0.92 daily="COM1_21_DU"
New "Load.BT_295227788_M2" bus1="NODE#420683215.3" phases=1 conn=Wye model=3 kv=0.220000000 kw = 0.0 pf=0.92 status=variable vmaxpu=1.5 vminpu=0.92 daily="COM1_21_DU"
New "Load.BT_ _5_M1" bus1="NODE#464498517.1.2.3.4" phases=3 conn=Delta model=2 kv=0.220000000 kw = 4.3946815 pf=0.92 status=variable vmaxpu=1.5 vminpu=0.92 daily="COM1_10_DU"
New "Load.BT_ _5_M2" bus1="NODE#464498517.1.2.3.4" phases=3 conn=Delta model=3 kv=0.220000000 kw = 4.3946815 pf=0.92 status=variable vmaxpu=1.5 vminpu=0.92 daily="COM1_10_DU"
New "Load.BT_295227814_2_M1" bus1="NODE#420683215.1.2.3" phases=3 conn=Delta model=2 kv=0.220000000 kw = 0.1390485 pf=0.92 status=variable vmaxpu=1.5 vminpu=0.92 daily="RES1_5_DU"
New "Load.BT_295227814_2_M2" bus1="NODE#420683215.1.2.3" phases=3 conn=Delta model=3 kv=0.220000000 kw = 0.1390485 pf=0.92 status=variable vmaxpu=1.5 vminpu=0.92 daily="RES1_5_DU"
New "Load.BT_295227837_M1" bus1="NODE#420683215.3" phases=1 conn=Wye model=2 kv=0.220000000 kw = 0.0 pf=0.92 status=variable vmaxpu=1.5 vminpu=0.92 daily="RES2_28_DU"
New "Load.BT_295227837_M2" bus1="NODE#420683215.3" phases=1 conn=Wye model=3 kv=0.220000000 kw = 0.0 pf=0.92 status=variable vmaxpu=1.5 vminpu=0.92 daily="RES2_28_DU"
New "Load.BT_295227713_M1" bus1="NODE#420661262.2" phases=1 conn=Wye model=2 kv=0.120000000 kw = 0.0 pf=0.92 status=variable vmaxpu=1.5 vminpu=0.92 daily="RES2_4_DU"
New "Load.BT_295227713_M2" bus1="NODE#420661262.2" phases=1 conn=Wye model=3 kv=0.120000000 kw = 0.0 pf=0.92 status=variable vmaxpu=1.5 vminpu=0.92 daily="RES2_4_DU"
New "Load.BT_295227700_1_M1" bus1="NODE#420661262.1.2" phases=1 conn=Delta model=2 kv=0.240000000 kw = 0.0 pf=0.92 status=variable vmaxpu=1.5 vminpu=0.92 daily="RES1_2_DU"
New "Load.BT_295227700_1_M2" bus1="NODE#420661262.1.2" phases=1 conn=Delta model=3 kv=0.240000000 kw = 0.0 pf=0.92 status=variable vmaxpu=1.5 vminpu=0.92 daily="RES1_2_DU"
New "Load.BT_295227835_1_M1" bus1="NODE#420683215.3" phases=1 conn=Wye model=2 kv=0.220000000 kw = 0.0 pf=0.92 status=variable vmaxpu=1.5 vminpu=0.92 daily="RES3_6_DU"
New "Load.BT_295227835_1_M2" bus1="NODE#420683215.3" phases=1 conn=Wye model=3 kv=0.220000000 kw = 0.0 pf=0.92 status=variable vmaxpu=1.5 vminpu=0.92 daily="RES3_6_DU"
New "Load.BT_295227911_1_M1" bus1="NODE#420661565.1.2.3" phases=3 conn=Delta model=2 kv=0.220000000 kw = 0.0 pf=0.92 status=variable vmaxpu=1.5 vminpu=0.92 daily="RES2_12_DU"
New "Load.BT_295227911_1_M2" bus1="NODE#420661565.1.2.3" phases=3 conn=Delta model=3 kv=0.220000000 kw = 0.0 pf=0.92 status=variable vmaxpu=1.5 vminpu=0.92 daily="RES2_12_DU"
New "Load.BT_ _18_M1" bus1="NODE#420661556.1.2" phases=1 conn=Delta model=2 kv=0.240000000 kw = 0.0 pf=0.92 status=variable vmaxpu=1.5 vminpu=0.92 daily="RES4_12_DU"
New "Load.BT_ _18_M2" bus1="NODE#420661556.1.2" phases=1 conn=Delta model=3 kv=0.240000000 kw = 0.0 pf=0.92 status=variable vmaxpu=1.5 vminpu=0.92 daily="RES4_12_DU"
New "Load.BT_295227401_1_M1" bus1="NODE#420661208.1" phases=1 conn=Wye model=2 kv=0.120000000 kw = 0.0 pf=0.92 status=variable vmaxpu=1.5 vminpu=0.92 daily="RES2_5_DU"
New "Load.BT_295227401_1_M2" bus1="NODE#420661208.1" phases=1 conn=Wye model=3 kv=0.120000000 kw = 0.0 pf=0.92 status=variable vmaxpu=1.5 vminpu=0.92 daily="RES2_5_DU"
New "Load.BT_295227921_1_M1" bus1="NODE#420661565.1.2.3" phases=3 conn=Delta model=2 kv=0.220000000 kw = 0.0 pf=0.92 status=variable vmaxpu=1.5 vminpu=0.92 daily="RES3_4_DU"
New "Load.BT_295227921_1_M2" bus1="NODE#420661565.1.2.3" phases=3 conn=Delta model=3 kv=0.220000000 kw = 0.0 pf=0.92 status=variable vmaxpu=1.5 vminpu=0.92 daily="RES3_4_DU"
New "Load.BT_300143147_M1" bus1="NODE#420661208.1.2" phases=1 conn=Delta model=2 kv=0.240000000 kw = 0.0 pf=0.92 status=variable vmaxpu=1.5 vminpu=0.92 daily="RES5_7_DU"
New "Load.BT_300143147_M2" bus1="NODE#420661208.1.2" phases=1 conn=Delta model=3 kv=0.240000000 kw = 0.0 pf=0.92 status=variable vmaxpu=1.5 vminpu=0.92 daily="RES5_7_DU"
New "Load.BT_295227944_2_M1" bus1="NODE#420661565.1.2" phases=1 conn=Delta model=2 kv=0.220000000 kw = 0.066826 pf=0.92 status=variable vmaxpu=1.5 vminpu=0.92 daily="RES1_7_DU"
New "Load.BT_295227944_2_M2" bus1="NODE#420661565.1.2" phases=1 conn=Delta model=3 kv=0.220000000 kw = 0.066826 pf=0.92 status=variable vmaxpu=1.5 vminpu=0.92 daily="RES1_7_DU"
New "Load.BT_295227708_1_M1" bus1="NODE#420661262.1" phases=1 conn=Wye model=2 kv=0.120000000 kw = 0.0 pf=0.92 status=variable vmaxpu=1.5 vminpu=0.92 daily="RES1_11_DU"
New "Load.BT_295227708_1_M2" bus1="NODE#420661262.1" phases=1 conn=Wye model=3 kv=0.120000000 kw = 0.0 pf=0.92 status=variable vmaxpu=1.5 vminpu=0.92 daily="RES1_11_DU"
New "Load.BT_300902682_2_M1" bus1="NODE#420683215.1.2" phases=1 conn=Delta model=2 kv=0.220000000 kw = 0.0 pf=0.92 status=variable vmaxpu=1.5 vminpu=0.92 daily="RES1_3_DU"
New "Load.BT_300902682_2_M2" bus1="NODE#420683215.1.2" phases=1 conn=Delta model=3 kv=0.220000000 kw = 0.0 pf=0.92 status=variable vmaxpu=1.5 vminpu=0.92 daily="RES1_3_DU"
New "Load.BT_295227712_2_M1" bus1="NODE#420661262.1" phases=1 conn=Wye model=2 kv=0.120000000 kw = 0.0 pf=0.92 status=variable vmaxpu=1.5 vminpu=0.92 daily="RES1_11_DU"
New "Load.BT_295227712_2_M2" bus1="NODE#420661262.1" phases=1 conn=Wye model=3 kv=0.120000000 kw = 0.0 pf=0.92 status=variable vmaxpu=1.5 vminpu=0.92 daily="RES1_11_DU"
New "Load.BT_295227850_M1" bus1="NODE#420661556.2" phases=1 conn=Wye model=2 kv=0.120000000 kw = 0.0 pf=0.92 status=variable vmaxpu=1.5 vminpu=0.92 daily="RES1_17_DU"
New "Load.BT_295227850_M2" bus1="NODE#420661556.2" phases=1 conn=Wye model=3 kv=0.120000000 kw = 0.0 pf=0.92 status=variable vmaxpu=1.5 vminpu=0.92 daily="RES1_17_DU"
New "Load.BT_295227853_1_M1" bus1="NODE#420661556.1.2" phases=1 conn=Delta model=2 kv=0.240000000 kw = 0.0 pf=0.92 status=variable vmaxpu=1.5 vminpu=0.92 daily="RES1_2_DU"
New "Load.BT_295227853_1_M2" bus1="NODE#420661556.1.2" phases=1 conn=Delta model=3 kv=0.240000000 kw = 0.0 pf=0.92 status=variable vmaxpu=1.5 vminpu=0.92 daily="RES1_2_DU"
New "Load.BT_295227852_1_M1" bus1="NODE#420661556.1.2" phases=1 conn=Delta model=2 kv=0.240000000 kw = 0.0 pf=0.92 status=variable vmaxpu=1.5 vminpu=0.92 daily="RES1_2_DU"
New "Load.BT_295227852_1_M2" bus1="NODE#420661556.1.2" phases=1 conn=Delta model=3 kv=0.240000000 kw = 0.0 pf=0.92 status=variable vmaxpu=1.5 vminpu=0.92 daily="RES1_2_DU"
New "Load.BT_300142995_M1" bus1="NODE#420661556.1" phases=1 conn=Wye model=2 kv=0.120000000 kw = 0.0 pf=0.92 status=variable vmaxpu=1.5 vminpu=0.92 daily="RES2_10_DU"
New "Load.BT_300142995_M2" bus1="NODE#420661556.1" phases=1 conn=Wye model=3 kv=0.120000000 kw = 0.0 pf=0.92 status=variable vmaxpu=1.5 vminpu=0.92 daily="RES2_10_DU"
New "Load.BT_295227831_2_M1" bus1="NODE#420683215.2" phases=1 conn=Wye model=2 kv=0.220000000 kw = 0.0 pf=0.92 status=variable vmaxpu=1.5 vminpu=0.92 daily="RES1_2_DU"
New "Load.BT_295227831_2_M2" bus1="NODE#420683215.2" phases=1 conn=Wye model=3 kv=0.220000000 kw = 0.0 pf=0.92 status=variable vmaxpu=1.5 vminpu=0.92 daily="RES1_2_DU"
New "Load.BT_ _26_M1" bus1="NODE#420661211.2.3" phases=1 conn=Delta model=2 kv=0.220000000 kw = 0.0 pf=0.92 status=variable vmaxpu=1.5 vminpu=0.92 daily="RES2_27_DU"
New "Load.BT_ _26_M2" bus1="NODE#420661211.2.3" phases=1 conn=Delta model=3 kv=0.220000000 kw = 0.0 pf=0.92 status=variable vmaxpu=1.5 vminpu=0.92 daily="RES2_27_DU"
New "Load.BT_295227705_M1" bus1="NODE#420661262.2" phases=1 conn=Wye model=2 kv=0.120000000 kw = 0.0 pf=0.92 status=variable vmaxpu=1.5 vminpu=0.92 daily="RES2_1_DU"
New "Load.BT_295227705_M2" bus1="NODE#420661262.2" phases=1 conn=Wye model=3 kv=0.120000000 kw = 0.0 pf=0.92 status=variable vmaxpu=1.5 vminpu=0.92 daily="RES2_1_DU"
New "Load.BT_295227409_1_M1" bus1="NODE#420661208.1" phases=1 conn=Wye model=2 kv=0.120000000 kw = 0.0 pf=0.92 status=variable vmaxpu=1.5 vminpu=0.92 daily="RES1_8_DU"
New "Load.BT_295227409_1_M2" bus1="NODE#420661208.1" phases=1 conn=Wye model=3 kv=0.120000000 kw = 0.0 pf=0.92 status=variable vmaxpu=1.5 vminpu=0.92 daily="RES1_8_DU"
New "Load.BT_300691429_1_M1" bus1="NODE#420686059.1.2.3" phases=3 conn=Delta model=2 kv=0.220000000 kw = 0.114546 pf=0.92 status=variable vmaxpu=1.5 vminpu=0.92 daily="RES1_8_DU"
New "Load.BT_300691429_1_M2" bus1="NODE#420686059.1.2.3" phases=3 conn=Delta model=3 kv=0.220000000 kw = 0.114546 pf=0.92 status=variable vmaxpu=1.5 vminpu=0.92 daily="RES1_8_DU"
New "Load.BT_300142989_M1" bus1="NODE#420683284.3" phases=1 conn=Wye model=2 kv=0.220000000 kw = 0.0407325 pf=0.92 status=variable vmaxpu=1.5 vminpu=0.92 daily="RES1_18_DU"
New "Load.BT_300142989_M2" bus1="NODE#420683284.3" phases=1 conn=Wye model=3 kv=0.220000000 kw = 0.0407325 pf=0.92 status=variable vmaxpu=1.5 vminpu=0.92 daily="RES1_18_DU"
New "Load.BT_295227406_M1" bus1="NODE#420661208.1.2" phases=1 conn=Delta model=2 kv=0.240000000 kw = 0.0 pf=0.92 status=variable vmaxpu=1.5 vminpu=0.92 daily="RES3_14_DU"
New "Load.BT_295227406_M2" bus1="NODE#420661208.1.2" phases=1 conn=Delta model=3 kv=0.240000000 kw = 0.0 pf=0.92 status=variable vmaxpu=1.5 vminpu=0.92 daily="RES3_14_DU"
New "Load.BT_295366830_1_M1" bus1="NODE#420686059.2.3" phases=1 conn=Delta model=2 kv=0.220000000 kw = 0.0 pf=0.92 status=variable vmaxpu=1.5 vminpu=0.92 daily="RES2_5_DU"
New "Load.BT_295366830_1_M2" bus1="NODE#420686059.2.3" phases=1 conn=Delta model=3 kv=0.220000000 kw = 0.0 pf=0.92 status=variable vmaxpu=1.5 vminpu=0.92 daily="RES2_5_DU"
New "Load.BT_295227409_2_M1" bus1="NODE#420661208.1" phases=1 conn=Wye model=2 kv=0.120000000 kw = 0.080895 pf=0.92 status=variable vmaxpu=1.5 vminpu=0.92 daily="RES1_14_DU"
New "Load.BT_295227409_2_M2" bus1="NODE#420661208.1" phases=1 conn=Wye model=3 kv=0.120000000 kw = 0.080895 pf=0.92 status=variable vmaxpu=1.5 vminpu=0.92 daily="RES1_14_DU"
New "Load.BT_295227709_M1" bus1="NODE#420661262.1" phases=1 conn=Wye model=2 kv=0.120000000 kw = 0.0 pf=0.92 status=variable vmaxpu=1.5 vminpu=0.92 daily="RES2_17_DU"
New "Load.BT_295227709_M2" bus1="NODE#420661262.1" phases=1 conn=Wye model=3 kv=0.120000000 kw = 0.0 pf=0.92 status=variable vmaxpu=1.5 vminpu=0.92 daily="RES2_17_DU"
New "Load.BT_295227933_1_M1" bus1="NODE#420661565.3.1" phases=1 conn=Delta model=2 kv=0.220000000 kw = 0.0 pf=0.92 status=variable vmaxpu=1.5 vminpu=0.92 daily="RES3_4_DU"
New "Load.BT_295227933_1_M2" bus1="NODE#420661565.3.1" phases=1 conn=Delta model=3 kv=0.220000000 kw = 0.0 pf=0.92 status=variable vmaxpu=1.5 vminpu=0.92 daily="RES3_4_DU"
New "Load.BT_295227403_1_M1" bus1="NODE#420661208.1.2" phases=1 conn=Delta model=2 kv=0.240000000 kw = 0.0 pf=0.92 status=variable vmaxpu=1.5 vminpu=0.92 daily="RES3_15_DU"
New "Load.BT_295227403_1_M2" bus1="NODE#420661208.1.2" phases=1 conn=Delta model=3 kv=0.240000000 kw = 0.0 pf=0.92 status=variable vmaxpu=1.5 vminpu=0.92 daily="RES3_15_DU"
New "Load.BT_295227530_M1" bus1="NODE#420661211.3.1" phases=1 conn=Delta model=2 kv=0.220000000 kw = 0.0 pf=0.92 status=variable vmaxpu=1.5 vminpu=0.92 daily="RES5_2_DU"
New "Load.BT_295227530_M2" bus1="NODE#420661211.3.1" phases=1 conn=Delta model=3 kv=0.220000000 kw = 0.0 pf=0.92 status=variable vmaxpu=1.5 vminpu=0.92 daily="RES5_2_DU"
New "Load.BT_295366831_M1" bus1="NODE#420686059.1" phases=1 conn=Wye model=2 kv=0.220000000 kw = 0.0 pf=0.92 status=variable vmaxpu=1.5 vminpu=0.92 daily="RES3_5_DU"
New "Load.BT_295366831_M2" bus1="NODE#420686059.1" phases=1 conn=Wye model=3 kv=0.220000000 kw = 0.0 pf=0.92 status=variable vmaxpu=1.5 vminpu=0.92 daily="RES3_5_DU"
New "Load.BT_295227413_1_M1" bus1="NODE#420661208.1.2" phases=1 conn=Delta model=2 kv=0.240000000 kw = 0.0 pf=0.92 status=variable vmaxpu=1.5 vminpu=0.92 daily="RES2_1_DU"
New "Load.BT_295227413_1_M2" bus1="NODE#420661208.1.2" phases=1 conn=Delta model=3 kv=0.240000000 kw = 0.0 pf=0.92 status=variable vmaxpu=1.5 vminpu=0.92 daily="RES2_1_DU"
New "Load.BT_295227797_M1" bus1="NODE#420683215.1" phases=1 conn=Wye model=2 kv=0.220000000 kw = 0.0 pf=0.92 status=variable vmaxpu=1.5 vminpu=0.92 daily="RES3_15_DU"
New "Load.BT_295227797_M2" bus1="NODE#420683215.1" phases=1 conn=Wye model=3 kv=0.220000000 kw = 0.0 pf=0.92 status=variable vmaxpu=1.5 vminpu=0.92 daily="RES3_15_DU"
New "Load.BT_295227403_2_M1" bus1="NODE#420661208.1.2" phases=1 conn=Delta model=2 kv=0.240000000 kw = 0.0 pf=0.92 status=variable vmaxpu=1.5 vminpu=0.92 daily="RES3_11_DU"
New "Load.BT_295227403_2_M2" bus1="NODE#420661208.1.2" phases=1 conn=Delta model=3 kv=0.240000000 kw = 0.0 pf=0.92 status=variable vmaxpu=1.5 vminpu=0.92 daily="RES3_11_DU"
New "Load.BT_324074674_4_M1" bus1="NODE#420683215.1.2.3" phases=3 conn=Delta model=2 kv=0.220000000 kw = 0.0 pf=0.92 status=variable vmaxpu=1.5 vminpu=0.92 daily="RES1_10_DU"
New "Load.BT_324074674_4_M2" bus1="NODE#420683215.1.2.3" phases=3 conn=Delta model=3 kv=0.220000000 kw = 0.0 pf=0.92 status=variable vmaxpu=1.5 vminpu=0.92 daily="RES1_10_DU"
New "Load.BT_295366846_2_M1" bus1="NODE#420686059.1.2" phases=1 conn=Delta model=2 kv=0.220000000 kw = 0.0 pf=0.92 status=variable vmaxpu=1.5 vminpu=0.92 daily="RES1_2_DU"
New "Load.BT_295366846_2_M2" bus1="NODE#420686059.1.2" phases=1 conn=Delta model=3 kv=0.220000000 kw = 0.0 pf=0.92 status=variable vmaxpu=1.5 vminpu=0.92 daily="RES1_2_DU"
New "Load.BT_295227792_2_M1" bus1="NODE#420683215.1.2.3" phases=3 conn=Delta model=2 kv=0.220000000 kw = 0.0 pf=0.92 status=variable vmaxpu=1.5 vminpu=0.92 daily="RES1_1_DU"
New "Load.BT_295227792_2_M2" bus1="NODE#420683215.1.2.3" phases=3 conn=Delta model=3 kv=0.220000000 kw = 0.0 pf=0.92 status=variable vmaxpu=1.5 vminpu=0.92 daily="RES1_1_DU"
New "Load.BT_ _34_M1" bus1="NODE#420661556.1" phases=1 conn=Wye model=2 kv=0.120000000 kw = 0.0 pf=0.92 status=variable vmaxpu=1.5 vminpu=0.92 daily="RES3_7_DU"
New "Load.BT_ _34_M2" bus1="NODE#420661556.1" phases=1 conn=Wye model=3 kv=0.120000000 kw = 0.0 pf=0.92 status=variable vmaxpu=1.5 vminpu=0.92 daily="RES3_7_DU"
New "Load.BT_295227723_1_M1" bus1="NODE#420661262.2" phases=1 conn=Wye model=2 kv=0.120000000 kw = 0.0 pf=0.92 status=variable vmaxpu=1.5 vminpu=0.92 daily="RES2_15_DU"
New "Load.BT_295227723_1_M2" bus1="NODE#420661262.2" phases=1 conn=Wye model=3 kv=0.120000000 kw = 0.0 pf=0.92 status=variable vmaxpu=1.5 vminpu=0.92 daily="RES2_15_DU"
New "Load.BT_299572095_1_M1" bus1="NODE#420661556.1.2" phases=1 conn=Delta model=2 kv=0.240000000 kw = 0.0 pf=0.92 status=variable vmaxpu=1.5 vminpu=0.92 daily="COM1_12_DU"
New "Load.BT_299572095_1_M2" bus1="NODE#420661556.1.2" phases=1 conn=Delta model=3 kv=0.240000000 kw = 0.0 pf=0.92 status=variable vmaxpu=1.5 vminpu=0.92 daily="COM1_12_DU"
New "Load.BT_295227432_1_M1" bus1="NODE#420683284.2.3" phases=1 conn=Delta model=2 kv=0.220000000 kw = 0.0 pf=0.92 status=variable vmaxpu=1.5 vminpu=0.92 daily="RES2_12_DU"
New "Load.BT_295227432_1_M2" bus1="NODE#420683284.2.3" phases=1 conn=Delta model=3 kv=0.220000000 kw = 0.0 pf=0.92 status=variable vmaxpu=1.5 vminpu=0.92 daily="RES2_12_DU"
New "Load.BT_323836284_M1" bus1="NODE#420661556.1.2" phases=1 conn=Delta model=2 kv=0.240000000 kw = 0.1390485 pf=0.92 status=variable vmaxpu=1.5 vminpu=0.92 daily="RES1_5_DU"
New "Load.BT_323836284_M2" bus1="NODE#420661556.1.2" phases=1 conn=Delta model=3 kv=0.240000000 kw = 0.1390485 pf=0.92 status=variable vmaxpu=1.5 vminpu=0.92 daily="RES1_5_DU"
New "Load.BT_1021555696_M1" bus1="NODE#420661556.1.4" phases=1 conn=Wye model=2 kv=0.120000000 kw = 0.1390485 pf=0.92 status=variable vmaxpu=1.5 vminpu=0.92 daily="RES1_5_DU"
New "Load.BT_1021555696_M2" bus1="NODE#420661556.1.4" phases=1 conn=Wye model=3 kv=0.120000000 kw = 0.1390485 pf=0.92 status=variable vmaxpu=1.5 vminpu=0.92 daily="RES1_5_DU"
New "Load.BT_ _42_M1" bus1="NODE#420661565.1.2.3.4" phases=3 conn=Delta model=2 kv=0.220000000 kw = 0.0819855 pf=0.92 status=variable vmaxpu=1.5 vminpu=0.92 daily="COM1_19_DU"
New "Load.BT_ _42_M2" bus1="NODE#420661565.1.2.3.4" phases=3 conn=Delta model=3 kv=0.220000000 kw = 0.0819855 pf=0.92 status=variable vmaxpu=1.5 vminpu=0.92 daily="COM1_19_DU"
New "Load.BT_295227802_1_M1" bus1="NODE#420683215.3.1" phases=1 conn=Delta model=2 kv=0.220000000 kw = 0.0 pf=0.92 status=variable vmaxpu=1.5 vminpu=0.92 daily="RES3_5_DU"
New "Load.BT_295227802_1_M2" bus1="NODE#420683215.3.1" phases=1 conn=Delta model=3 kv=0.220000000 kw = 0.0 pf=0.92 status=variable vmaxpu=1.5 vminpu=0.92 daily="RES3_5_DU"
New "Load.BT_295227854_2_M1" bus1="NODE#420661556.1.2" phases=1 conn=Delta model=2 kv=0.240000000 kw = 0.0 pf=0.92 status=variable vmaxpu=1.5 vminpu=0.92 daily="RES3_4_DU"
New "Load.BT_295227854_2_M2" bus1="NODE#420661556.1.2" phases=1 conn=Delta model=3 kv=0.240000000 kw = 0.0 pf=0.92 status=variable vmaxpu=1.5 vminpu=0.92 daily="RES3_4_DU"
New "Load.BT_295227791_1_M1" bus1="NODE#420683215.1" phases=1 conn=Wye model=2 kv=0.220000000 kw = 0.0 pf=0.92 status=variable vmaxpu=1.5 vminpu=0.92 daily="RES1_11_DU"
New "Load.BT_295227791_1_M2" bus1="NODE#420683215.1" phases=1 conn=Wye model=3 kv=0.220000000 kw = 0.0 pf=0.92 status=variable vmaxpu=1.5 vminpu=0.92 daily="RES1_11_DU"
New "Load.BT_295227716_M1" bus1="NODE#420661262.2" phases=1 conn=Wye model=2 kv=0.120000000 kw = 0.0407325 pf=0.92 status=variable vmaxpu=1.5 vminpu=0.92 daily="RES1_18_DU"
New "Load.BT_295227716_M2" bus1="NODE#420661262.2" phases=1 conn=Wye model=3 kv=0.120000000 kw = 0.0407325 pf=0.92 status=variable vmaxpu=1.5 vminpu=0.92 daily="RES1_18_DU"
New "Load.BT_295227695_2_M1" bus1="NODE#420661262.1.2" phases=1 conn=Delta model=2 kv=0.240000000 kw = 0.0629875 pf=0.92 status=variable vmaxpu=1.5 vminpu=0.92 daily="RES1_20_DU"
New "Load.BT_295227695_2_M2" bus1="NODE#420661262.1.2" phases=1 conn=Delta model=3 kv=0.240000000 kw = 0.0629875 pf=0.92 status=variable vmaxpu=1.5 vminpu=0.92 daily="RES1_20_DU"
New "Load.BT_295227434_2_M1" bus1="NODE#420683284.1" phases=1 conn=Wye model=2 kv=0.220000000 kw = 0.083121 pf=0.92 status=variable vmaxpu=1.5 vminpu=0.92 daily="RES1_6_DU"
New "Load.BT_295227434_2_M2" bus1="NODE#420683284.1" phases=1 conn=Wye model=3 kv=0.220000000 kw = 0.083121 pf=0.92 status=variable vmaxpu=1.5 vminpu=0.92 daily="RES1_6_DU"
New "Load.BT_295366840_M1" bus1="NODE#420686059.1" phases=1 conn=Wye model=2 kv=0.220000000 kw = 0.0 pf=0.92 status=variable vmaxpu=1.5 vminpu=0.92 daily="RES2_15_DU"
New "Load.BT_295366840_M2" bus1="NODE#420686059.1" phases=1 conn=Wye model=3 kv=0.220000000 kw = 0.0 pf=0.92 status=variable vmaxpu=1.5 vminpu=0.92 daily="RES2_15_DU"
New "Load.BT_295227935_4_M1" bus1="NODE#420661565.2.3" phases=1 conn=Delta model=2 kv=0.220000000 kw = 0.1390485 pf=0.92 status=variable vmaxpu=1.5 vminpu=0.92 daily="RES1_5_DU"
New "Load.BT_295227935_4_M2" bus1="NODE#420661565.2.3" phases=1 conn=Delta model=3 kv=0.220000000 kw = 0.1390485 pf=0.92 status=variable vmaxpu=1.5 vminpu=0.92 daily="RES1_5_DU"
New "Load.BT_295227449_1_M1" bus1="NODE#420683284.3.1" phases=1 conn=Delta model=2 kv=0.220000000 kw = 0.0 pf=0.92 status=variable vmaxpu=1.5 vminpu=0.92 daily="RES2_26_DU"
New "Load.BT_295227449_1_M2" bus1="NODE#420683284.3.1" phases=1 conn=Delta model=3 kv=0.220000000 kw = 0.0 pf=0.92 status=variable vmaxpu=1.5 vminpu=0.92 daily="RES2_26_DU"
New "Load.BT_295227919_M1" bus1="NODE#420661565.2" phases=1 conn=Wye model=2 kv=0.220000000 kw = 0.0 pf=0.92 status=variable vmaxpu=1.5 vminpu=0.92 daily="RES2_6_DU"
New "Load.BT_295227919_M2" bus1="NODE#420661565.2" phases=1 conn=Wye model=3 kv=0.220000000 kw = 0.0 pf=0.92 status=variable vmaxpu=1.5 vminpu=0.92 daily="RES2_6_DU"
New "Load.BT_295366832_2_M1" bus1="NODE#420686059.3.1" phases=1 conn=Delta model=2 kv=0.220000000 kw = 0.0 pf=0.92 status=variable vmaxpu=1.5 vminpu=0.92 daily="RES2_2_DU"
New "Load.BT_295366832_2_M2" bus1="NODE#420686059.3.1" phases=1 conn=Delta model=3 kv=0.220000000 kw = 0.0 pf=0.92 status=variable vmaxpu=1.5 vminpu=0.92 daily="RES2_2_DU"
New "Load.BT_295227524_M1" bus1="NODE#420661211.3" phases=1 conn=Wye model=2 kv=0.220000000 kw = 0.0 pf=0.92 status=variable vmaxpu=1.5 vminpu=0.92 daily="RES2_15_DU"
New "Load.BT_295227524_M2" bus1="NODE#420661211.3" phases=1 conn=Wye model=3 kv=0.220000000 kw = 0.0 pf=0.92 status=variable vmaxpu=1.5 vminpu=0.92 daily="RES2_15_DU"
New "Load.BT_300142997_M1" bus1="NODE#420661565.1.2" phases=1 conn=Delta model=2 kv=0.220000000 kw = 0.0606455 pf=0.92 status=variable vmaxpu=1.5 vminpu=0.92 daily="RES1_22_DU"
New "Load.BT_300142997_M2" bus1="NODE#420661565.1.2" phases=1 conn=Delta model=3 kv=0.220000000 kw = 0.0606455 pf=0.92 status=variable vmaxpu=1.5 vminpu=0.92 daily="RES1_22_DU"
New "Load.BT_299764339_2_M1" bus1="NODE#464498517.3.1" phases=1 conn=Delta model=2 kv=0.220000000 kw = 0.0 pf=0.92 status=variable vmaxpu=1.5 vminpu=0.92 daily="RES2_10_DU"
New "Load.BT_299764339_2_M2" bus1="NODE#464498517.3.1" phases=1 conn=Delta model=3 kv=0.220000000 kw = 0.0 pf=0.92 status=variable vmaxpu=1.5 vminpu=0.92 daily="RES2_10_DU"
New "Load.BT_295227431_M1" bus1="NODE#420683284.1" phases=1 conn=Wye model=2 kv=0.220000000 kw = 0.0 pf=0.92 status=variable vmaxpu=1.5 vminpu=0.92 daily="RES3_15_DU"
New "Load.BT_295227431_M2" bus1="NODE#420683284.1" phases=1 conn=Wye model=3 kv=0.220000000 kw = 0.0 pf=0.92 status=variable vmaxpu=1.5 vminpu=0.92 daily="RES3_15_DU"
New "Load.BT_295227790_1_M1" bus1="NODE#420683215.2" phases=1 conn=Wye model=2 kv=0.220000000 kw = 0.0407325 pf=0.92 status=variable vmaxpu=1.5 vminpu=0.92 daily="RES1_18_DU"
New "Load.BT_295227790_1_M2" bus1="NODE#420683215.2" phases=1 conn=Wye model=3 kv=0.220000000 kw = 0.0407325 pf=0.92 status=variable vmaxpu=1.5 vminpu=0.92 daily="RES1_18_DU"
New "Load.BT_295227711_2_M1" bus1="NODE#420661262.1.2" phases=1 conn=Delta model=2 kv=0.240000000 kw = 0.0 pf=0.92 status=variable vmaxpu=1.5 vminpu=0.92 daily="RES2_2_DU"
New "Load.BT_295227711_2_M2" bus1="NODE#420661262.1.2" phases=1 conn=Delta model=3 kv=0.240000000 kw = 0.0 pf=0.92 status=variable vmaxpu=1.5 vminpu=0.92 daily="RES2_2_DU"
New "Load.BT_295366843_M1" bus1="NODE#420686059.2" phases=1 conn=Wye model=2 kv=0.220000000 kw = 0.0 pf=0.92 status=variable vmaxpu=1.5 vminpu=0.92 daily="RES2_17_DU"
New "Load.BT_295366843_M2" bus1="NODE#420686059.2" phases=1 conn=Wye model=3 kv=0.220000000 kw = 0.0 pf=0.92 status=variable vmaxpu=1.5 vminpu=0.92 daily="RES2_17_DU"
New "Load.BT_295227409_4_M1" bus1="NODE#420661208.1" phases=1 conn=Wye model=2 kv=0.120000000 kw = 0.114546 pf=0.92 status=variable vmaxpu=1.5 vminpu=0.92 daily="RES1_8_DU"
New "Load.BT_295227409_4_M2" bus1="NODE#420661208.1" phases=1 conn=Wye model=3 kv=0.120000000 kw = 0.114546 pf=0.92 status=variable vmaxpu=1.5 vminpu=0.92 daily="RES1_8_DU"
New "Load.BT_295227428_2_M1" bus1="NODE#420683284.1.2.3" phases=3 conn=Delta model=2 kv=0.220000000 kw = 0.0 pf=0.92 status=variable vmaxpu=1.5 vminpu=0.92 daily="RES1_11_DU"
New "Load.BT_295227428_2_M2" bus1="NODE#420683284.1.2.3" phases=3 conn=Delta model=3 kv=0.220000000 kw = 0.0 pf=0.92 status=variable vmaxpu=1.5 vminpu=0.92 daily="RES1_11_DU"
New "Load.BT_295227848_M1" bus1="NODE#420661556.1" phases=1 conn=Wye model=2 kv=0.120000000 kw = 0.1390485 pf=0.92 status=variable vmaxpu=1.5 vminpu=0.92 daily="RES1_5_DU"
New "Load.BT_295227848_M2" bus1="NODE#420661556.1" phases=1 conn=Wye model=3 kv=0.120000000 kw = 0.1390485 pf=0.92 status=variable vmaxpu=1.5 vminpu=0.92 daily="RES1_5_DU"
New "Load.BT_295227796_M1" bus1="NODE#420683215.1" phases=1 conn=Wye model=2 kv=0.220000000 kw = 0.0 pf=0.92 status=variable vmaxpu=1.5 vminpu=0.92 daily="RES2_16_DU"
New "Load.BT_295227796_M2" bus1="NODE#420683215.1" phases=1 conn=Wye model=3 kv=0.220000000 kw = 0.0 pf=0.92 status=variable vmaxpu=1.5 vminpu=0.92 daily="RES2_16_DU"
New "Load.BT_295227911_3_M1" bus1="NODE#420661565.1.2.3" phases=3 conn=Delta model=2 kv=0.220000000 kw = 0.0 pf=0.92 status=variable vmaxpu=1.5 vminpu=0.92 daily="RES2_2_DU"
New "Load.BT_295227911_3_M2" bus1="NODE#420661565.1.2.3" phases=3 conn=Delta model=3 kv=0.220000000 kw = 0.0 pf=0.92 status=variable vmaxpu=1.5 vminpu=0.92 daily="RES2_2_DU"
New "Load.BT_295227948_2_M1" bus1="NODE#420661565.2" phases=1 conn=Wye model=2 kv=0.220000000 kw = 0.083121 pf=0.92 status=variable vmaxpu=1.5 vminpu=0.92 daily="RES1_6_DU"
New "Load.BT_295227948_2_M2" bus1="NODE#420661565.2" phases=1 conn=Wye model=3 kv=0.220000000 kw = 0.083121 pf=0.92 status=variable vmaxpu=1.5 vminpu=0.92 daily="RES1_6_DU"
New "Load.BT_300691429_2_M1" bus1="NODE#420686059.1.2.3" phases=3 conn=Delta model=2 kv=0.220000000 kw = 0.0 pf=0.92 status=variable vmaxpu=1.5 vminpu=0.92 daily="RES3_14_DU"
New "Load.BT_300691429_2_M2" bus1="NODE#420686059.1.2.3" phases=3 conn=Delta model=3 kv=0.220000000 kw = 0.0 pf=0.92 status=variable vmaxpu=1.5 vminpu=0.92 daily="RES3_14_DU"
New "Load.BT_295227435_M1" bus1="NODE#420683284.1" phases=1 conn=Wye model=2 kv=0.220000000 kw = 0.0 pf=0.92 status=variable vmaxpu=1.5 vminpu=0.92 daily="RES2_4_DU"
New "Load.BT_295227435_M2" bus1="NODE#420683284.1" phases=1 conn=Wye model=3 kv=0.220000000 kw = 0.0 pf=0.92 status=variable vmaxpu=1.5 vminpu=0.92 daily="RES2_4_DU"
New "Load.BT_295227818_2_M1" bus1="NODE#420683215.3.1" phases=1 conn=Delta model=2 kv=0.220000000 kw = 0.0 pf=0.92 status=variable vmaxpu=1.5 vminpu=0.92 daily="RES2_15_DU"
New "Load.BT_295227818_2_M2" bus1="NODE#420683215.3.1" phases=1 conn=Delta model=3 kv=0.220000000 kw = 0.0 pf=0.92 status=variable vmaxpu=1.5 vminpu=0.92 daily="RES2_15_DU"
New "Load.BT_295227429_1_M1" bus1="NODE#420683284.1.2" phases=1 conn=Delta model=2 kv=0.220000000 kw = 0.0 pf=0.92 status=variable vmaxpu=1.5 vminpu=0.92 daily="RES1_1_DU"
New "Load.BT_295227429_1_M2" bus1="NODE#420683284.1.2" phases=1 conn=Delta model=3 kv=0.220000000 kw = 0.0 pf=0.92 status=variable vmaxpu=1.5 vminpu=0.92 daily="RES1_1_DU"
New "Load.BT_295227836_1_M1" bus1="NODE#420683215.1" phases=1 conn=Wye model=2 kv=0.220000000 kw = 0.0 pf=0.92 status=variable vmaxpu=1.5 vminpu=0.92 daily="RES2_2_DU"
New "Load.BT_295227836_1_M2" bus1="NODE#420683215.1" phases=1 conn=Wye model=3 kv=0.220000000 kw = 0.0 pf=0.92 status=variable vmaxpu=1.5 vminpu=0.92 daily="RES2_2_DU"
New "Load.BT_295227708_2_M1" bus1="NODE#420661262.1" phases=1 conn=Wye model=2 kv=0.120000000 kw = 0.083121 pf=0.92 status=variable vmaxpu=1.5 vminpu=0.92 daily="RES1_6_DU"
New "Load.BT_295227708_2_M2" bus1="NODE#420661262.1" phases=1 conn=Wye model=3 kv=0.120000000 kw = 0.083121 pf=0.92 status=variable vmaxpu=1.5 vminpu=0.92 daily="RES1_6_DU"
New "Load.BT_299954431_M1" bus1="NODE#420661208.1" phases=1 conn=Wye model=2 kv=0.120000000 kw = 0.0629875 pf=0.92 status=variable vmaxpu=1.5 vminpu=0.92 daily="RES1_20_DU"
New "Load.BT_299954431_M2" bus1="NODE#420661208.1" phases=1 conn=Wye model=3 kv=0.120000000 kw = 0.0629875 pf=0.92 status=variable vmaxpu=1.5 vminpu=0.92 daily="RES1_20_DU"
New "Load.BT_300142994_2_M1" bus1="NODE#420686059.1" phases=1 conn=Wye model=2 kv=0.220000000 kw = 0.0 pf=0.92 status=variable vmaxpu=1.5 vminpu=0.92 daily="RES2_11_DU"
New "Load.BT_300142994_2_M2" bus1="NODE#420686059.1" phases=1 conn=Wye model=3 kv=0.220000000 kw = 0.0 pf=0.92 status=variable vmaxpu=1.5 vminpu=0.92 daily="RES2_11_DU"
New "Load.BT_299765979_M1" bus1="NODE#420683284.1" phases=1 conn=Wye model=2 kv=0.220000000 kw = 0.0 pf=0.92 status=variable vmaxpu=1.5 vminpu=0.92 daily="RES2_17_DU"
New "Load.BT_299765979_M2" bus1="NODE#420683284.1" phases=1 conn=Wye model=3 kv=0.220000000 kw = 0.0 pf=0.92 status=variable vmaxpu=1.5 vminpu=0.92 daily="RES2_17_DU"
New "Load.BT_295227861_2_M1" bus1="NODE#420661556.1.2" phases=1 conn=Delta model=2 kv=0.240000000 kw = 0.083121 pf=0.92 status=variable vmaxpu=1.5 vminpu=0.92 daily="RES1_6_DU"
New "Load.BT_295227861_2_M2" bus1="NODE#420661556.1.2" phases=1 conn=Delta model=3 kv=0.240000000 kw = 0.083121 pf=0.92 status=variable vmaxpu=1.5 vminpu=0.92 daily="RES1_6_DU"
New "Load.BT_295227916_M1" bus1="NODE#420661565.1.2.3" phases=3 conn=Delta model=2 kv=0.220000000 kw = 0.0 pf=0.92 status=variable vmaxpu=1.5 vminpu=0.92 daily="RES3_7_DU"
New "Load.BT_295227916_M2" bus1="NODE#420661565.1.2.3" phases=3 conn=Delta model=3 kv=0.220000000 kw = 0.0 pf=0.92 status=variable vmaxpu=1.5 vminpu=0.92 daily="RES3_7_DU"
New "Load.BT_295227415_M1" bus1="NODE#420661208.1.2" phases=1 conn=Delta model=2 kv=0.240000000 kw = 0.0 pf=0.92 status=variable vmaxpu=1.5 vminpu=0.92 daily="RES2_3_DU"
New "Load.BT_295227415_M2" bus1="NODE#420661208.1.2" phases=1 conn=Delta model=3 kv=0.240000000 kw = 0.0 pf=0.92 status=variable vmaxpu=1.5 vminpu=0.92 daily="RES2_3_DU"
New "Load.BT_295227858_2_M1" bus1="NODE#420661556.1.2" phases=1 conn=Delta model=2 kv=0.240000000 kw = 0.0 pf=0.92 status=variable vmaxpu=1.5 vminpu=0.92 daily="RES2_5_DU"
New "Load.BT_295227858_2_M2" bus1="NODE#420661556.1.2" phases=1 conn=Delta model=3 kv=0.240000000 kw = 0.0 pf=0.92 status=variable vmaxpu=1.5 vminpu=0.92 daily="RES2_5_DU"
New "Load.BT_300142697_M1" bus1="NODE#420661262.1" phases=1 conn=Wye model=2 kv=0.120000000 kw = 0.0 pf=0.92 status=variable vmaxpu=1.5 vminpu=0.92 daily="RES1_11_DU"
New "Load.BT_300142697_M2" bus1="NODE#420661262.1" phases=1 conn=Wye model=3 kv=0.120000000 kw = 0.0 pf=0.92 status=variable vmaxpu=1.5 vminpu=0.92 daily="RES1_11_DU"
New "Load.BT_295227915_M1" bus1="NODE#420661565.3" phases=1 conn=Wye model=2 kv=0.220000000 kw = 0.0 pf=0.92 status=variable vmaxpu=1.5 vminpu=0.92 daily="RES4_9_DU"
New "Load.BT_295227915_M2" bus1="NODE#420661565.3" phases=1 conn=Wye model=3 kv=0.220000000 kw = 0.0 pf=0.92 status=variable vmaxpu=1.5 vminpu=0.92 daily="RES4_9_DU"
New "Load.BT_295227700_2_M1" bus1="NODE#420661262.1.2" phases=1 conn=Delta model=2 kv=0.240000000 kw = 0.0 pf=0.92 status=variable vmaxpu=1.5 vminpu=0.92 daily="RES2_16_DU"
New "Load.BT_295227700_2_M2" bus1="NODE#420661262.1.2" phases=1 conn=Delta model=3 kv=0.240000000 kw = 0.0 pf=0.92 status=variable vmaxpu=1.5 vminpu=0.92 daily="RES2_16_DU"
New "Load.BT_299955485_3_M1" bus1="NODE#420683284.1.2.3" phases=3 conn=Delta model=2 kv=0.220000000 kw = 0.0 pf=0.92 status=variable vmaxpu=1.5 vminpu=0.92 daily="RES2_28_DU"
New "Load.BT_299955485_3_M2" bus1="NODE#420683284.1.2.3" phases=3 conn=Delta model=3 kv=0.220000000 kw = 0.0 pf=0.92 status=variable vmaxpu=1.5 vminpu=0.92 daily="RES2_28_DU"
New "Load.BT_295227409_6_M1" bus1="NODE#420661208.1" phases=1 conn=Wye model=2 kv=0.120000000 kw = 0.038462 pf=0.92 status=variable vmaxpu=1.5 vminpu=0.92 daily="RES1_25_DU"
New "Load.BT_295227409_6_M2" bus1="NODE#420661208.1" phases=1 conn=Wye model=3 kv=0.120000000 kw = 0.038462 pf=0.92 status=variable vmaxpu=1.5 vminpu=0.92 daily="RES1_25_DU"
New "Load.BT_295366824_M1" bus1="NODE#420686059.3" phases=1 conn=Wye model=2 kv=0.220000000 kw = 0.505896 pf=0.92 status=variable vmaxpu=1.5 vminpu=0.92 daily="RES2_2_DU"
New "Load.BT_295366824_M2" bus1="NODE#420686059.3" phases=1 conn=Wye model=3 kv=0.220000000 kw = 0.505896 pf=0.92 status=variable vmaxpu=1.5 vminpu=0.92 daily="RES2_2_DU"
New "Load.BT_295227832_3_M1" bus1="NODE#420683215.1.2.3" phases=3 conn=Delta model=2 kv=0.220000000 kw = 0.0 pf=0.92 status=variable vmaxpu=1.5 vminpu=0.92 daily="RES1_14_DU"
New "Load.BT_295227832_3_M2" bus1="NODE#420683215.1.2.3" phases=3 conn=Delta model=3 kv=0.220000000 kw = 0.0 pf=0.92 status=variable vmaxpu=1.5 vminpu=0.92 daily="RES1_14_DU"
New "Load.BT_295227834_M1" bus1="NODE#420683215.2" phases=1 conn=Wye model=2 kv=0.220000000 kw = 0.0 pf=0.92 status=variable vmaxpu=1.5 vminpu=0.92 daily="RES3_11_DU"
New "Load.BT_295227834_M2" bus1="NODE#420683215.2" phases=1 conn=Wye model=3 kv=0.220000000 kw = 0.0 pf=0.92 status=variable vmaxpu=1.5 vminpu=0.92 daily="RES3_11_DU"
New "Load.BT_300509003_M1" bus1="NODE#420661262.1.2" phases=1 conn=Delta model=2 kv=0.240000000 kw = 0.0 pf=0.92 status=variable vmaxpu=1.5 vminpu=0.92 daily="RES2_14_DU"
New "Load.BT_300509003_M2" bus1="NODE#420661262.1.2" phases=1 conn=Delta model=3 kv=0.240000000 kw = 0.0 pf=0.92 status=variable vmaxpu=1.5 vminpu=0.92 daily="RES2_14_DU"
New "Load.BT_295227791_2_M1" bus1="NODE#420683215.1" phases=1 conn=Wye model=2 kv=0.220000000 kw = 0.0 pf=0.92 status=variable vmaxpu=1.5 vminpu=0.92 daily="RES1_14_DU"
New "Load.BT_295227791_2_M2" bus1="NODE#420683215.1" phases=1 conn=Wye model=3 kv=0.220000000 kw = 0.0 pf=0.92 status=variable vmaxpu=1.5 vminpu=0.92 daily="RES1_14_DU"
New "Load.BT_295227824_2_M1" bus1="NODE#420683215.2" phases=1 conn=Wye model=2 kv=0.220000000 kw = 0.0 pf=0.92 status=variable vmaxpu=1.5 vminpu=0.92 daily="RES1_13_DU"
New "Load.BT_295227824_2_M2" bus1="NODE#420683215.2" phases=1 conn=Wye model=3 kv=0.220000000 kw = 0.0 pf=0.92 status=variable vmaxpu=1.5 vminpu=0.92 daily="RES1_13_DU"
...
